/*--------------------------------*- C++ -*----------------------------------*\
| =========                 |
| \\      /  F inite Volume | OpenFOAM: The Open Source CFD Toolbox
\*---------------------------------------------------------------------------*/

FoamFile
{
    version     2.0;
    format      ascii;
    class       dictionary;
    object      fvSolution;
}

// =============================================================
//  DIAGONAL SOLVERS for INVISCID EULER EQUATIONS (µ=0)
// =============================================================

solvers
{
    // All variables use diagonal solver for hyperbolic/inviscid problems
    rho
    {
        solver          diagonal;
        tolerance       1e-8;
        relTol          0;
    }
    rhoFinal
    {
        solver          diagonal;
        tolerance       1e-10;
        relTol          0;
    }

    U
    {
        solver          diagonal;
        tolerance       1e-8;
        relTol          0;
    }
    UFinal
    {
        solver          diagonal;
        tolerance       1e-10;
        relTol          0;
    }

    T
    {
        solver          diagonal;
        tolerance       1e-8;
        relTol          0;
    }
    TFinal
    {
        solver          diagonal;
        tolerance       1e-10;
        relTol          0;
    }

    e
    {
        solver          diagonal;
        tolerance       1e-8;
        relTol          0;
    }
    eFinal
    {
        solver          diagonal;
        tolerance       1e-10;
        relTol          0;
    }

    p
    {
        solver          diagonal;
        tolerance       1e-8;
        relTol          0;
    }
    pFinal
    {
        solver          diagonal;
        tolerance       1e-10;
        relTol          0;
    }
}

// =============================================================
//  PIMPLE controls for INVISCID flow
// =============================================================

PIMPLE
{ 
}




// ************************************************************************* //
