/*--------------------------------*- C++ -*----------------------------------*\
  =========                 |
  \\      /  F ield         | OpenFOAM: The Open Source CFD Toolbox
   \\    /   O peration     | Website:  https://openfoam.org
    \\  /    A nd           | Version:  13
     \\/     M anipulation  |
\*---------------------------------------------------------------------------*/
FoamFile
{
    format      ascii;
    class       polyBoundaryMesh;
    location    "constant/polyMesh";
    object      boundary;
}
// * * * * * * * * * * * * * * * * * * * * * * * * * * * * * * * * * * * * * //

6
(
    inlet
    {
        type            patch;        // FIXED (was: symmetry)
        nFaces          220;
        startFace       207920;
    }

    topfarfield
    {
        type            patch;     // keep as symmetry
        nFaces          420;
        startFace       208140;
    }

    bottomfarfield
    {
        type            patch;     // FIXED (was: patch)
        nFaces          420;
        startFace       208560;
    }

    outlet
    {
        type            patch;
        nFaces          220;
        startFace       208980;
    }

    hot_cylinder
    {
        type            wall;
        inGroups        List<word> 1(wall);
        nFaces          480;
        startFace       209200;
    }

    frontAndBackPlanes
    {
        type            empty;
        inGroups        List<word> 1(empty);
        nFaces          208800;
        startFace       209680;
    }
)
