/*--------------------------------*- C++ -*----------------------------------*\
  =========                 |
  \\      /  F ield         | OpenFOAM: The Open Source CFD Toolbox
   \\    /   O peration     | Version: 13
    \\  /    A nd           | Website:  www.openfoam.com
     \\/     M anipulation  |
\*---------------------------------------------------------------------------*/
FoamFile
{
    version     2.0;
    format      ascii;
    class       volScalarField;
    location    "0";
    object      rho;
}
// * * * * * * * * * * * * * * * * * * * * * * * * * * * * * * * * * * * * * //

dimensions      [1 -3 0 0 0 0 0];

internalField   uniform 1.17712;

boundaryField
{
    inlet
    {
        type            fixedValue;    
        value           uniform 1.17712;
    }

    outlet
    {
        type            zeroGradient;  
    }

    topfarfield
    {
        type            zeroGradient;
    }

    bottomfarfield
    {
        type            zeroGradient;
    }

    hot_cylinder
    {
        type            zeroGradient;  
    }

    frontAndBackPlanes
    {
        type            empty;
    }
}

// ************************************************************************* //